@<TRIPOS>MOLECULE
ABOFAZ
   49    50     1     0     0
SMALL
No Charge or Current Charge


@<TRIPOS>ATOM
      1 Pd1          1.5220     2.4400    13.1420 Pd         1 RES       0.125595
      2 Cl1          1.6010     4.5820    13.9620 cl         1 RES      -0.494068
      3 Cl2          2.0740     3.2170    11.0560 cl         1 RES      -0.494068
      4 S1           0.7400    -0.2490    16.7080 s          1 RES      -0.255991
      5 S2           1.1590    -2.0080    12.2940 s          1 RES      -0.255991
      6 N1           1.1050     1.6110    14.9550 n          1 RES       0.070058
      7 N2           1.2980     0.5650    12.4070 n          1 RES       0.070058
      8 C1           0.6660     3.9870    17.8980 c3         1 RES      -0.216030
      9 H1           1.3290     4.4180    18.4400 hc         1 RES       0.039720
     10 H2           0.0510     3.5120    18.4610 hc         1 RES       0.039720
     11 H3           0.1900     4.6480    17.3900 hc         1 RES       0.039720
     12 C2           1.3370     3.0210    16.9590 c3         1 RES       0.465796
     13 H4           1.8350     2.3710    17.4790 hc         1 RES      -0.088329
     14 H5           1.9690     3.5050    16.4050 hc         1 RES      -0.088329
     15 C3           0.3450     2.2850    16.0590 c3         1 RES      -0.158418
     16 H6          -0.2930     2.9230    15.6780 h1         1 RES       0.095774
     17 C4          -0.4000     1.1800    16.7650 c2         1 RES       0.100012
     18 H7          -1.2320     0.9770    16.3090 ha         1 RES       0.079882
     19 H8          -0.5960     1.4280    17.6830 ha         1 RES       0.079882
     20 C5           1.4250     0.3960    15.2460 c2         1 RES       0.070713
     21 C6           2.3460    -0.4510    14.3810 c3         1 RES       0.046281
     22 C7           2.5900    -1.8430    14.9950 c3         1 RES       0.021503
     23 H9           2.7830    -1.7290    15.9390 hc         1 RES       0.023323
     24 H10          1.7690    -2.3550    14.9260 hc         1 RES       0.023323
     25 C8           3.7170    -2.6620    14.3710 c3         1 RES       0.115585
     26 H11          3.8810    -3.4450    14.9190 hc         1 RES      -0.025587
     27 H12          3.4390    -2.9670    13.4930 hc         1 RES      -0.025587
     28 C9           4.9850    -1.8900    14.2370 c3         1 RES       0.045605
     29 H13          5.6290    -2.4140    13.7360 hc         1 RES      -0.021412
     30 H14          5.3550    -1.7240    15.1180 hc         1 RES      -0.021412
     31 C10          4.7540    -0.5610    13.5280 c3         1 RES       0.115585
     32 H15          5.5870    -0.0670    13.4900 hc         1 RES      -0.025587
     33 H16          4.4600    -0.7290    12.6180 hc         1 RES      -0.025587
     34 C11          3.7200     0.2590    14.2420 c3         1 RES       0.021503
     35 H17          3.5940     1.0910    13.7600 hc         1 RES       0.023323
     36 H18          4.0500     0.4780    15.1270 hc         1 RES       0.023323
     37 C12          1.6530    -0.5100    13.0090 c2         1 RES       0.070713
     38 C13          0.5790    -1.1370    10.8230 c2         1 RES       0.100012
     39 H19          1.2140    -1.2430    10.0970 ha         1 RES       0.079882
     40 H20         -0.2780    -1.4920    10.5370 ha         1 RES       0.079882
     41 C14          0.4460     0.3380    11.1990 c3         1 RES      -0.158418
     42 H21          0.8200     0.8700    10.4650 h1         1 RES       0.095774
     43 C15         -0.9540     0.8160    11.4410 c3         1 RES       0.465796
     44 H22         -0.9250     1.7640    11.6450 hc         1 RES      -0.088329
     45 H23         -1.4630     0.7090    10.6220 hc         1 RES      -0.088329
     46 C16         -1.6700     0.1220    12.5340 c3         1 RES      -0.216030
     47 H24         -2.5550     0.4850    12.6180 hc         1 RES       0.039720
     48 H25         -1.1940     0.2460    13.3580 hc         1 RES       0.039720
     49 H26         -1.7260    -0.8160    12.3350 hc         1 RES       0.039720
@<TRIPOS>BOND
     1     1     7 1   
     2     1     6 1   
     3     1     2 1   
     4     1     3 1   
     5     4    20 1   
     6     5    37 1   
     7     6    15 1   
     8     6    20 2   
     9     7    37 2   
    10     7    41 1   
    11     8     9 1   
    12     8    10 1   
    13     8    11 1   
    14     8    12 1   
    15    12    13 1   
    16    12    14 1   
    17    12    15 1   
    18    15    16 1   
    19    15    17 1   
    20    17    18 1   
    21    17    19 1   
    22    20    21 1   
    23    21    22 1   
    24    21    34 1   
    25    21    37 1   
    26    22    23 1   
    27    22    24 1   
    28    22    25 1   
    29    25    26 1   
    30    25    27 1   
    31    25    28 1   
    32    28    29 1   
    33    28    30 1   
    34    28    31 1   
    35    31    32 1   
    36    31    33 1   
    37    31    34 1   
    38    34    35 1   
    39    34    36 1   
    40    38    39 1   
    41    38    40 1   
    42    38    41 1   
    43    41    42 1   
    44    41    43 1   
    45    43    44 1   
    46    43    45 1   
    47    43    46 1   
    48    46    47 1   
    49    46    48 1   
    50    46    49 1   
@<TRIPOS>SUBSTRUCTURE
     1 RES         1 TEMP              0 ****  ****    0 ROOT
