@<TRIPOS>MOLECULE
1502799
   78    81     1     0     0
SMALL
No Charge or Current Charge


@<TRIPOS>ATOM
      1 Pd1          7.9800     0.9940     3.8450 Pd         1 RES      -0.022461
      2 P2           6.7590     2.2650     2.3370 1p         1 RES       0.172293
      3 P1           8.6950    -0.8200     5.0330 3p         1 RES       0.172293
      4 S1           9.6680     2.4360     4.6880 2s         1 RES      -0.764944
      5 O3           5.8730     1.1410     1.5070 os         1 RES      -0.626913
      6 O1           7.8430    -2.0890     4.4020 os         1 RES      -0.626913
      7 C1           6.8660    -0.4330     2.9930 4d         1 RES      -0.425205
      8 C2           6.0200    -0.1750     1.9270 ca         1 RES       0.599503
      9 C3           6.9840    -1.7740     3.3530 ca         1 RES       0.599503
     10 C4           6.3300    -2.8000     2.7180 ca         1 RES      -0.435895
     11 H4           6.4480    -3.6820     2.9870 ha         1 RES       0.223952
     12 C7           9.0400     3.9300     5.3540 ca         1 RES       0.435752
     13 C13          5.3750     3.3470     2.9740 c3         1 RES       0.580997
     14 C21          7.7230     3.0420     0.9460 c3         1 RES       0.580997
     15 C5           5.3310    -1.1800     1.2610 ca         1 RES      -0.435895
     16 H5           4.7700    -0.9720     0.5500 ha         1 RES       0.223952
     17 C6           5.4860    -2.4820     1.6640 ca         1 RES      -0.146405
     18 H6           5.0220    -3.1590     1.2270 ha         1 RES       0.205756
     19 C17          8.1250    -0.8490     6.8240 c3         1 RES       0.580997
     20 C8           9.7090     5.1070     5.0760 ca         1 RES      -0.222962
     21 H8          10.4540     5.0970     4.5190 ha         1 RES       0.181770
     22 C14          5.8890     4.7450     3.3140 c3         1 RES      -0.035904
     23 H14A         6.0900     5.2190     2.5050 hc         1 RES      -0.023054
     24 H14B         6.6850     4.6720     3.8490 hc         1 RES      -0.023054
     25 H14C         5.2170     5.2230     3.8070 hc         1 RES      -0.023054
     26 C9           8.1760     6.3510     6.4210 ca         1 RES      -0.150864
     27 H9           7.8770     7.1630     6.7620 ha         1 RES       0.159147
     28 C10          7.9480     3.9850     6.1870 ca         1 RES      -0.222962
     29 H10          7.4980     3.2000     6.3980 ha         1 RES       0.181770
     30 C11          7.5080     5.1740     6.7130 ca         1 RES      -0.255889
     31 H11          6.7610     5.1880     7.2680 ha         1 RES       0.187162
     32 C12          9.2770     6.2990     5.6230 ca         1 RES      -0.255889
     33 H12          9.7460     7.0810     5.4430 ha         1 RES       0.187162
     34 C22          6.8360     3.5820    -0.1750 c3         1 RES      -0.035904
     35 H22A         6.3250     4.3260     0.1530 hc         1 RES      -0.023054
     36 H22B         6.2390     2.8910    -0.4720 hc         1 RES      -0.023054
     37 H22C         7.3850     3.8690    -0.9080 hc         1 RES      -0.023054
     38 C15          4.8770     2.6400     4.2540 c3         1 RES      -0.035904
     39 H15A         4.1390     3.1300     4.6230 hc         1 RES      -0.023054
     40 H15B         5.5900     2.6020     4.8960 hc         1 RES      -0.023054
     41 H15C         4.5940     1.7480     4.0380 hc         1 RES      -0.023054
     42 C16          4.1990     3.4610     1.9930 c3         1 RES      -0.035904
     43 H16A         3.4880     3.9600     2.4020 hc         1 RES      -0.023054
     44 H16B         3.8840     2.5820     1.7680 hc         1 RES      -0.023054
     45 H16C         4.4890     3.9090     1.1950 hc         1 RES      -0.023054
     46 C23          8.6510     4.1200     1.4660 c3         1 RES      -0.035904
     47 H23A         9.2490     4.3920     0.7660 hc         1 RES      -0.023054
     48 H23B         9.1580     3.7770     2.2050 hc         1 RES      -0.023054
     49 H23C         8.1330     4.8750     1.7570 hc         1 RES      -0.023054
     50 C18          8.8230     0.2490     7.6210 c3         1 RES      -0.035904
     51 H18A         8.4280     0.3110     8.4940 hc         1 RES      -0.023054
     52 H18B         8.7230     1.0880     7.1650 hc         1 RES      -0.023054
     53 H18C         9.7550     0.0380     7.7050 hc         1 RES      -0.023054
     54 C19          6.6290    -0.5550     6.7690 c3         1 RES      -0.035904
     55 H19A         6.2750    -0.5270     7.6610 hc         1 RES      -0.023054
     56 H19B         6.1860    -1.2440     6.2700 hc         1 RES      -0.023054
     57 H19C         6.4850     0.2920     6.3410 hc         1 RES      -0.023054
     58 C20          8.3430    -2.2020     7.5100 c3         1 RES      -0.035904
     59 H20A         9.2850    -2.3790     7.5760 hc         1 RES      -0.023054
     60 H20B         7.9230    -2.8940     6.9930 hc         1 RES      -0.023054
     61 H20C         7.9590    -2.1810     8.3890 hc         1 RES      -0.023054
     62 C24          8.5840     1.8890     0.3990 c3         1 RES      -0.035904
     63 H24A         9.0860     2.1960    -0.3610 hc         1 RES      -0.023054
     64 H24B         8.0170     1.1620     0.1350 hc         1 RES      -0.023054
     65 H24C         9.1900     1.5900     1.0810 hc         1 RES      -0.023054
     66 C25         10.4210    -1.4070     4.7790 c3         1 RES       0.580997
     67 C26         11.4210    -0.6540     5.6510 c3         1 RES      -0.035904
     68 H26A        12.3140    -0.8620     5.3680 hc         1 RES      -0.023054
     69 H26B        11.3070    -0.9160     6.5690 hc         1 RES      -0.023054
     70 H26C        11.2710     0.2910     5.5690 hc         1 RES      -0.023054
     71 C27         10.7380    -1.0190     3.3300 c3         1 RES      -0.035904
     72 H27A        10.6200    -0.0730     3.2210 hc         1 RES      -0.023054
     73 H27B        10.1470    -1.4880     2.7370 hc         1 RES      -0.023054
     74 H27C        11.6470    -1.2550     3.1280 hc         1 RES      -0.023054
     75 C28         10.5810    -2.9300     4.9690 c3         1 RES      -0.035904
     76 H28A        11.5140    -3.1570     4.9570 hc         1 RES      -0.023054
     77 H28B        10.1300    -3.3910     4.2590 hc         1 RES      -0.023054
     78 H28C        10.2000    -3.1880     5.8120 hc         1 RES      -0.023054
@<TRIPOS>BOND
     1     1     2 1   
     2     1     3 1   
     3     1     4 1   
     4     1     7 1   
     5     2     5 1   
     6     2    13 1   
     7     2    14 1   
     8     3     6 1   
     9     3    19 1   
    10     3    66 1   
    11     4    12 1   
    12     5     8 1   
    13     6     9 1   
    14     7     8 ar  
    15     7     9 ar  
    16     8    15 ar  
    17     9    10 ar  
    18    10    11 1   
    19    10    17 ar  
    20    12    20 ar  
    21    12    28 ar  
    22    13    22 1   
    23    13    38 1   
    24    13    42 1   
    25    14    34 1   
    26    14    46 1   
    27    14    62 1   
    28    15    16 1   
    29    15    17 ar  
    30    17    18 1   
    31    19    50 1   
    32    19    54 1   
    33    19    58 1   
    34    20    21 1   
    35    20    32 ar  
    36    22    23 1   
    37    22    24 1   
    38    22    25 1   
    39    26    27 1   
    40    26    30 ar  
    41    26    32 ar  
    42    28    29 1   
    43    28    30 ar  
    44    30    31 1   
    45    32    33 1   
    46    34    35 1   
    47    34    36 1   
    48    34    37 1   
    49    38    39 1   
    50    38    40 1   
    51    38    41 1   
    52    42    43 1   
    53    42    44 1   
    54    42    45 1   
    55    46    47 1   
    56    46    48 1   
    57    46    49 1   
    58    50    51 1   
    59    50    52 1   
    60    50    53 1   
    61    54    55 1   
    62    54    56 1   
    63    54    57 1   
    64    58    59 1   
    65    58    60 1   
    66    58    61 1   
    67    62    63 1   
    68    62    64 1   
    69    62    65 1   
    70    66    67 1   
    71    66    71 1   
    72    66    75 1   
    73    67    68 1   
    74    67    69 1   
    75    67    70 1   
    76    71    72 1   
    77    71    73 1   
    78    71    74 1   
    79    75    76 1   
    80    75    77 1   
    81    75    78 1   
@<TRIPOS>SUBSTRUCTURE
     1 RES         1 TEMP              0 ****  ****    0 ROOT
