####################################################################### 
# 
# This file contains crystal structure data downloaded from the 
# Cambridge Structural Database (CSD) hosted by the Cambridge 
# Crystallographic Data Centre (CCDC).
# 
# Full information about CCDC data access policies and citation 
# guidelines are available at http://www.ccdc.cam.ac.uk/access/V1 
# 
# Audit and citation data items may have been added by the CCDC. 
# Please retain this information to preserve the provenance of 
# this file and to allow appropriate attribution of the data. 
# 
#######################################################################
@<TRIPOS>MOLECULE
1502799
    78    81     1     0     0
SMALL
NO_CHARGES
****
Generated from the CSD

@<TRIPOS>ATOM
     1 Pd1      7.9804   0.9943   3.8446   Pd        1 RES1   -0.022461
     2 P2       6.7594   2.2649   2.3368   P.3       1 RES1    0.172293
     3 P1       8.6950  -0.8197   5.0330   P.3       1 RES1    0.172293
     4 S1       9.6681   2.4361   4.6878   S.3       1 RES1   -0.764944
     5 O3       5.8732   1.1411   1.5073   O.3       1 RES1   -0.626913
     6 O1       7.8435  -2.0893   4.4018   O.3       1 RES1   -0.626913
     7 C1       6.8660  -0.4334   2.9933   C.ar      1 RES1   -0.425205
     8 C2       6.0196  -0.1751   1.9267   C.ar      1 RES1    0.599503
     9 C3       6.9839  -1.7742   3.3526   C.ar      1 RES1    0.599503
    10 C4       6.3295  -2.7995   2.7183   C.ar      1 RES1   -0.435895
    11 H4       6.4481  -3.6823   2.9870   H         1 RES1    0.223952
    12 C7       9.0403   3.9303   5.3540   C.ar      1 RES1    0.435752
    13 C13      5.3745   3.3468   2.9743   C.3       1 RES1    0.580997
    14 C21      7.7235   3.0416   0.9459   C.3       1 RES1    0.580997
    15 C5       5.3310  -1.1796   1.2606   C.ar      1 RES1   -0.435895
    16 H5       4.7699  -0.9720   0.5500   H         1 RES1    0.223952
    17 C6       5.4863  -2.4820   1.6644   C.ar      1 RES1   -0.146405
    18 H6       5.0216  -3.1585   1.2272   H         1 RES1    0.205756
    19 C17      8.1248  -0.8491   6.8244   C.3       1 RES1    0.580997
    20 C8       9.7092   5.1067   5.0758   C.ar      1 RES1   -0.222962
    21 H8      10.4535   5.0968   4.5194   H         1 RES1    0.181770
    22 C14      5.8894   4.7453   3.3145   C.3       1 RES1   -0.035904
    23 H14A     6.0902   5.2188   2.5053   H         1 RES1   -0.023054
    24 H14B     6.6847   4.6720   3.8486   H         1 RES1   -0.023054
    25 H14C     5.2174   5.2227   3.8072   H         1 RES1   -0.023054
    26 C9       8.1758   6.3513   6.4207   C.ar      1 RES1   -0.150864
    27 H9       7.8771   7.1628   6.7624   H         1 RES1    0.159147
    28 C10      7.9479   3.9851   6.1870   C.ar      1 RES1   -0.222962
    29 H10      7.4978   3.1998   6.3984   H         1 RES1    0.181770
    30 C11      7.5077   5.1742   6.7132   C.ar      1 RES1   -0.255889
    31 H11      6.7609   5.1884   7.2679   H         1 RES1    0.187162
    32 C12      9.2767   6.2986   5.6226   C.ar      1 RES1   -0.255889
    33 H12      9.7464   7.0809   5.4430   H         1 RES1    0.187162
    34 C22      6.8361   3.5818  -0.1749   C.3       1 RES1   -0.035904
    35 H22A     6.3248   4.3260   0.1526   H         1 RES1   -0.023054
    36 H22B     6.2395   2.8912  -0.4721   H         1 RES1   -0.023054
    37 H22C     7.3850   3.8689  -0.9077   H         1 RES1   -0.023054
    38 C15      4.8772   2.6400   4.2539   C.3       1 RES1   -0.035904
    39 H15A     4.1386   3.1299   4.6227   H         1 RES1   -0.023054
    40 H15B     5.5898   2.6024   4.8962   H         1 RES1   -0.023054
    41 H15C     4.5941   1.7482   4.0377   H         1 RES1   -0.023054
    42 C16      4.1993   3.4606   1.9934   C.3       1 RES1   -0.035904
    43 H16A     3.4884   3.9602   2.4020   H         1 RES1   -0.023054
    44 H16B     3.8842   2.5816   1.7677   H         1 RES1   -0.023054
    45 H16C     4.4893   3.9094   1.1954   H         1 RES1   -0.023054
    46 C23      8.6509   4.1202   1.4657   C.3       1 RES1   -0.035904
    47 H23A     9.2489   4.3923   0.7662   H         1 RES1   -0.023054
    48 H23B     9.1578   3.7775   2.2049   H         1 RES1   -0.023054
    49 H23C     8.1330   4.8754   1.7566   H         1 RES1   -0.023054
    50 C18      8.8226   0.2488   7.6209   C.3       1 RES1   -0.035904
    51 H18A     8.4276   0.3110   8.4936   H         1 RES1   -0.023054
    52 H18B     8.7234   1.0878   7.1646   H         1 RES1   -0.023054
    53 H18C     9.7550   0.0382   7.7051   H         1 RES1   -0.023054
    54 C19      6.6290  -0.5552   6.7688   C.3       1 RES1   -0.035904
    55 H19A     6.2748  -0.5273   7.6606   H         1 RES1   -0.023054
    56 H19B     6.1862  -1.2444   6.2696   H         1 RES1   -0.023054
    57 H19C     6.4851   0.2925   6.3412   H         1 RES1   -0.023054
    58 C20      8.3431  -2.2016   7.5096   C.3       1 RES1   -0.035904
    59 H20A     9.2846  -2.3786   7.5763   H         1 RES1   -0.023054
    60 H20B     7.9230  -2.8941   6.9929   H         1 RES1   -0.023054
    61 H20C     7.9586  -2.1806   8.3887   H         1 RES1   -0.023054
    62 C24      8.5843   1.8887   0.3990   C.3       1 RES1   -0.035904
    63 H24A     9.0857   2.1964  -0.3609   H         1 RES1   -0.023054
    64 H24B     8.0169   1.1620   0.1351   H         1 RES1   -0.023054
    65 H24C     9.1896   1.5900   1.0810   H         1 RES1   -0.023054
    66 C25     10.4210  -1.4073   4.7785   C.3       1 RES1    0.580997
    67 C26     11.4213  -0.6541   5.6513   C.3       1 RES1   -0.035904
    68 H26A    12.3144  -0.8617   5.3683   H         1 RES1   -0.023054
    69 H26B    11.3075  -0.9157   6.5685   H         1 RES1   -0.023054
    70 H26C    11.2714   0.2913   5.5686   H         1 RES1   -0.023054
    71 C27     10.7384  -1.0193   3.3303   C.3       1 RES1   -0.035904
    72 H27A    10.6205  -0.0735   3.2207   H         1 RES1   -0.023054
    73 H27B    10.1466  -1.4875   2.7374   H         1 RES1   -0.023054
    74 H27C    11.6466  -1.2553   3.1285   H         1 RES1   -0.023054
    75 C28     10.5812  -2.9298   4.9693   C.3       1 RES1   -0.035904
    76 H28A    11.5135  -3.1573   4.9566   H         1 RES1   -0.023054
    77 H28B    10.1297  -3.3909   4.2587   H         1 RES1   -0.023054
    78 H28C    10.2004  -3.1876   5.8118   H         1 RES1   -0.023054
@<TRIPOS>BOND
     1     1     2    1
     2     1     3    1
     3     1     4    1
     4     1     7    1
     5     2     5    1
     6     2    13    1
     7     2    14    1
     8     3     6    1
     9     3    19    1
    10     3    66    1
    11     4    12    1
    12     5     8    1
    13     6     9    1
    14     7     8   ar
    15     7     9   ar
    16     8    15   ar
    17     9    10   ar
    18    10    11    1
    19    10    17   ar
    20    12    20   ar
    21    12    28   ar
    22    13    22    1
    23    13    38    1
    24    13    42    1
    25    14    34    1
    26    14    46    1
    27    14    62    1
    28    15    16    1
    29    15    17   ar
    30    17    18    1
    31    19    50    1
    32    19    54    1
    33    19    58    1
    34    20    21    1
    35    20    32   ar
    36    22    23    1
    37    22    24    1
    38    22    25    1
    39    26    27    1
    40    26    30   ar
    41    26    32   ar
    42    28    29    1
    43    28    30   ar
    44    30    31    1
    45    32    33    1
    46    34    35    1
    47    34    36    1
    48    34    37    1
    49    38    39    1
    50    38    40    1
    51    38    41    1
    52    42    43    1
    53    42    44    1
    54    42    45    1
    55    46    47    1
    56    46    48    1
    57    46    49    1
    58    50    51    1
    59    50    52    1
    60    50    53    1
    61    54    55    1
    62    54    56    1
    63    54    57    1
    64    58    59    1
    65    58    60    1
    66    58    61    1
    67    62    63    1
    68    62    64    1
    69    62    65    1
    70    66    67    1
    71    66    71    1
    72    66    75    1
    73    67    68    1
    74    67    69    1
    75    67    70    1
    76    71    72    1
    77    71    73    1
    78    71    74    1
    79    75    76    1
    80    75    77    1
    81    75    78    1
@<TRIPOS>SUBSTRUCTURE
     1 RES1        1 GROUP             0 ****  ****    0  
@<TRIPOS>CRYSIN
    8.6167   11.5992   16.4263   77.1791   79.8629   73.9166     2     1
