@<TRIPOS>MOLECULE
ACIVOA
   77    80     1     0     0
SMALL
No Charge or Current Charge


@<TRIPOS>ATOM
      1 Pd1         -0.0560    12.9890    10.2930 Pd         1 RES       0.089871
      2 Cl1          1.2840    12.9890    12.1330 1c         1 RES      -0.521369
      3 Cl2         -1.4780    12.9890     8.5040 3c         1 RES      -0.521369
      4 N1           2.3170    11.9180     8.8500 na         1 RES       0.009843
      5 N2          -1.7150    12.9890    11.5600 2n         1 RES       0.047779
      6 N3          -2.9800    12.9890    11.1770 na         1 RES      -0.259835
      7 H3          -3.2450    12.9890    10.3590 hn         1 RES       0.352577
      8 C1           1.5830    12.9890     9.2140 4e         1 RES       0.310375
      9 C2           3.5060    12.3300     8.2840 cc         1 RES      -0.282466
     10 H2           4.1820    11.7800     7.9620 h4         1 RES       0.285746
     11 C3           1.8870    10.5360     8.8670 ca         1 RES      -0.083474
     12 C4           2.3250     9.7080     9.8930 ca         1 RES       0.190754
     13 C5           1.9020     8.3790     9.8330 ca         1 RES       0.049220
     14 H5           2.1580     7.7930    10.5090 ha         1 RES       0.181977
     15 C6           1.1320     7.9180     8.8220 ca         1 RES      -0.287395
     16 H6           0.8610     7.0290     8.8160 ha         1 RES       0.220119
     17 C7           0.7480     8.7540     7.8080 ca         1 RES       0.049220
     18 H7           0.2310     8.4160     7.1130 ha         1 RES       0.181977
     19 C8           1.1110    10.0850     7.7970 ca         1 RES       0.190754
     20 C9           3.2710    10.1680    10.9710 c3         1 RES       0.132802
     21 H9           3.2620    11.1480    10.9790 hc         1 RES       0.050713
     22 C10          2.8820     9.6890    12.3530 c3         1 RES      -0.309927
     23 H10A         2.0000    10.0030    12.5630 hc         1 RES       0.105204
     24 H10B         3.5070    10.0310    12.9970 hc         1 RES       0.105204
     25 H10C         2.8940     8.7300    12.3740 hc         1 RES       0.105204
     26 C11          4.6910     9.7150    10.6270 c3         1 RES      -0.309927
     27 H11A         4.7160     8.7580    10.5670 hc         1 RES       0.105204
     28 H11B         5.2950    10.0100    11.3130 hc         1 RES       0.105204
     29 H11C         4.9530    10.0960     9.7860 hc         1 RES       0.105204
     30 C12          0.7340    10.9760     6.6340 c3         1 RES       0.132802
     31 H12          0.7170    11.8990     6.9620 hc         1 RES       0.050713
     32 C13          1.7800    10.8960     5.5320 c3         1 RES      -0.309927
     33 H13A         2.6370    11.1420     5.8860 hc         1 RES       0.105204
     34 H13B         1.5440    11.4970     4.8200 hc         1 RES       0.105204
     35 H13C         1.8200     9.9990     5.1920 hc         1 RES       0.105204
     36 C14         -0.6520    10.6610     6.0680 c3         1 RES      -0.309927
     37 H14A        -0.6220     9.8260     5.5950 hc         1 RES       0.105204
     38 H14B        -0.9190    11.3610     5.4680 hc         1 RES       0.105204
     39 H14C        -1.2840    10.5970     6.7880 hc         1 RES       0.105204
     40 C15         -1.7470    12.9890    12.8570 cc         1 RES       0.035607
     41 H15         -0.9930    12.9890    13.4000 h4         1 RES       0.190879
     42 C16         -3.8050    12.9890    12.2570 cd         1 RES       0.007035
     43 H16         -4.7340    12.9890    12.2500 h4         1 RES       0.207867
     44 C17         -3.0210    12.9890    13.3180 cc         1 RES      -0.354503
     45 H17         -3.2890    12.9890    14.2070 ha         1 RES       0.222991
     46 N4           2.3170    14.0590     8.8500 na         1 RES       0.009843
     47 C18          3.5060    13.6470     8.2840 cd         1 RES      -0.282466
     48 H4           4.1820    14.1970     7.9620 h4         1 RES       0.285746
     49 C19          1.8870    15.4410     8.8670 ca         1 RES      -0.083474
     50 C20          2.3250    16.2690     9.8930 ca         1 RES       0.190754
     51 C21          1.9020    17.5980     9.8330 ca         1 RES       0.049220
     52 H8           2.1580    18.1840    10.5090 ha         1 RES       0.181977
     53 C22          1.1320    18.0580     8.8220 ca         1 RES      -0.287395
     54 H18          0.8610    18.9480     8.8160 ha         1 RES       0.220119
     55 C23          0.7480    17.2230     7.8080 ca         1 RES       0.049220
     56 H19          0.2310    17.5610     7.1130 ha         1 RES       0.181977
     57 C24          1.1110    15.8920     7.7970 ca         1 RES       0.190754
     58 C25          3.2710    15.8090    10.9710 c3         1 RES       0.132802
     59 H20          3.2620    14.8290    10.9790 hc         1 RES       0.050713
     60 C26          2.8820    16.2880    12.3530 c3         1 RES      -0.309927
     61 H21          2.0000    15.9740    12.5630 hc         1 RES       0.105204
     62 H22          3.5070    15.9460    12.9970 hc         1 RES       0.105204
     63 H23          2.8940    17.2470    12.3740 hc         1 RES       0.105204
     64 C27          4.6910    16.2620    10.6270 c3         1 RES      -0.309927
     65 H24          4.7160    17.2190    10.5670 hc         1 RES       0.105204
     66 H25          5.2950    15.9670    11.3130 hc         1 RES       0.105204
     67 H26          4.9530    15.8810     9.7860 hc         1 RES       0.105204
     68 C28          0.7340    15.0010     6.6340 c3         1 RES       0.132802
     69 H27          0.7170    14.0780     6.9620 hc         1 RES       0.050713
     70 C29          1.7800    15.0810     5.5320 c3         1 RES      -0.309927
     71 H28          2.6370    14.8350     5.8860 hc         1 RES       0.105204
     72 H29          1.5440    14.4800     4.8200 hc         1 RES       0.105204
     73 H30          1.8200    15.9780     5.1920 hc         1 RES       0.105204
     74 C30         -0.6520    15.3160     6.0680 c3         1 RES      -0.309927
     75 H31         -0.6220    16.1510     5.5950 hc         1 RES       0.105204
     76 H32         -0.9190    14.6160     5.4680 hc         1 RES       0.105204
     77 H33         -1.2840    15.3800     6.7880 hc         1 RES       0.105204
@<TRIPOS>BOND
     1     1     2 1   
     2     1     3 1   
     3     1     5 1   
     4     1     8 1   
     5     4     8 1   
     6     4     9 1   
     7     4    11 1   
     8     5     6 1   
     9     5    40 2   
    10     6     7 1   
    11     6    42 1   
    12     8    46 1   
    13     9    10 1   
    14     9    47 2   
    15    11    12 ar  
    16    11    19 ar  
    17    12    13 ar  
    18    12    20 1   
    19    13    14 1   
    20    13    15 ar  
    21    15    16 1   
    22    15    17 ar  
    23    17    18 1   
    24    17    19 ar  
    25    19    30 1   
    26    20    21 1   
    27    20    22 1   
    28    20    26 1   
    29    22    23 1   
    30    22    24 1   
    31    22    25 1   
    32    26    27 1   
    33    26    28 1   
    34    26    29 1   
    35    30    31 1   
    36    30    32 1   
    37    30    36 1   
    38    32    33 1   
    39    32    34 1   
    40    32    35 1   
    41    36    37 1   
    42    36    38 1   
    43    36    39 1   
    44    40    41 1   
    45    40    44 1   
    46    42    43 1   
    47    42    44 2   
    48    44    45 1   
    49    46    47 1   
    50    46    49 1   
    51    47    48 1   
    52    49    50 ar  
    53    49    57 ar  
    54    50    51 ar  
    55    50    58 1   
    56    51    52 1   
    57    51    53 ar  
    58    53    54 1   
    59    53    55 ar  
    60    55    56 1   
    61    55    57 ar  
    62    57    68 1   
    63    58    59 1   
    64    58    60 1   
    65    58    64 1   
    66    60    61 1   
    67    60    62 1   
    68    60    63 1   
    69    64    65 1   
    70    64    66 1   
    71    64    67 1   
    72    68    69 1   
    73    68    70 1   
    74    68    74 1   
    75    70    71 1   
    76    70    72 1   
    77    70    73 1   
    78    74    75 1   
    79    74    76 1   
    80    74    77 1   
@<TRIPOS>SUBSTRUCTURE
     1 RES         1 TEMP              0 ****  ****    0 ROOT
