@<TRIPOS>MOLECULE
Molecule
   35    36     1     0     0
SMALL
No Charge or Current Charge


@<TRIPOS>ATOM
      1 C1           2.1410     1.9410    -0.1110 c3         1 RES       1.124451
      2 C2           3.1940     2.7180    -0.9000 c3         1 RES      -0.499331
      3 C3           1.7200     2.4920     1.1620 c3         1 RES      -0.677103
      4 C4           0.6670     2.0340     1.9510 c3         1 RES       1.124451
      5 C5           1.2690     1.7590     3.3420 c3         1 RES      -0.499331
      6 O6           1.5800     0.9210    -0.7080 1o         1 RES      -1.040730
      7 O7          -0.0860     1.0040     1.6780 2o         1 RES      -1.040730
      8 Pd8          0.0000     0.0000     0.0000 Pd         1 RES       0.886824
      9 O9          -1.5800    -0.9210     0.7080 3o         1 RES      -1.040730
     10 O10          0.0860    -1.0040    -1.6780 4o         1 RES      -1.040730
     11 C11         -2.1410    -1.9410     0.1110 c3         1 RES       1.124451
     12 C12         -0.6670    -2.0340    -1.9510 c3         1 RES       1.124451
     13 C13         -3.1940    -2.7180     0.9000 c3         1 RES      -0.499331
     14 C14         -1.7200    -2.4920    -1.1620 c3         1 RES      -0.677103
     15 C15          0.2920    -3.2280    -2.1100 c3         1 RES      -0.499331
     16 H16          2.3600     1.1460     0.5710 h1         1 RES      -0.147798
     17 H17          3.4710     3.5970    -0.3550 hc         1 RES       0.067623
     18 H18          4.0570     2.1020    -1.0450 hc         1 RES       0.067623
     19 H19          2.7920     2.9990    -1.8510 hc         1 RES       0.067623
     20 H20          2.5750     2.3370     1.7870 hc         1 RES      -0.022616
     21 H21          1.4170     3.4860     0.9080 hc         1 RES      -0.022616
     22 H22          0.0010     2.8640     2.0610 h1         1 RES      -0.147798
     23 H23          0.5030     1.4020     3.9980 hc         1 RES       0.067623
     24 H24          1.6830     2.6640     3.7360 hc         1 RES       0.067623
     25 H25          2.0390     1.0220     3.2580 hc         1 RES       0.067623
     26 H26         -2.3600    -1.1460    -0.5710 h1         1 RES      -0.147798
     27 H27         -1.0850    -1.8430    -2.9170 h1         1 RES      -0.147798
     28 H28         -3.3110    -2.2790     1.8680 hc         1 RES       0.067623
     29 H29         -2.8820    -3.7360     1.0040 hc         1 RES       0.067623
     30 H30         -4.1280    -2.6830     0.3780 hc         1 RES       0.067623
     31 H31         -1.4170    -3.4860    -0.9080 hc         1 RES      -0.022616
     32 H32         -2.5750    -2.3370    -1.7870 hc         1 RES      -0.022616
     33 H33          1.2990    -2.9000    -1.9570 hc         1 RES       0.067623
     34 H34          0.0480    -3.9800    -1.3880 hc         1 RES       0.067623
     35 H35          0.1950    -3.6350    -3.0950 hc         1 RES       0.067623
@<TRIPOS>BOND
     1     1     2 1   
     2     1     3 1   
     3     1     6 1   
     4     1    16 1   
     5     2    17 1   
     6     2    18 1   
     7     2    19 1   
     8     3     4 1   
     9     3    20 1   
    10     3    21 1   
    11     4     5 1   
    12     4     7 1   
    13     4    22 1   
    14     5    23 1   
    15     5    24 1   
    16     5    25 1   
    17     6     8 1   
    18     7     8 1   
    19     8     9 1   
    20     8    10 1   
    21     9    11 1   
    22    10    12 1   
    23    11    13 1   
    24    11    14 1   
    25    11    26 1   
    26    12    15 1   
    27    12    14 1   
    28    12    27 1   
    29    13    28 1   
    30    13    29 1   
    31    13    30 1   
    32    14    31 1   
    33    14    32 1   
    34    15    33 1   
    35    15    34 1   
    36    15    35 1   
@<TRIPOS>SUBSTRUCTURE
     1 RES         1 TEMP              0 ****  ****    0 ROOT
