@<TRIPOS>MOLECULE
ACEJOJ
   89    95     1     0     0
SMALL
No Charge or Current Charge


@<TRIPOS>ATOM
      1 Pd1         11.2310     9.6140    11.9930 Pd         1 RES       0.000000
      2 Cl1          8.8930     9.6210    11.7490 cl         1 RES       0.000000
      3 Cl2         11.6480     9.4850     9.6660 cl         1 RES       0.000000
      4 P1          10.9740     9.6030    14.1910 p5         1 RES       0.000000
      5 N2           9.9350    10.6580    14.9750 n3         1 RES       0.000000
      6 C3           8.7280     9.8840    15.3670 c3         1 RES       0.000000
      7 H3           8.1620     9.7530    14.5540 h1         1 RES       0.000000
      8 C4           9.2650     8.5200    15.8010 c3         1 RES       0.000000
      9 H4           9.6830     8.6090    16.7050 h1         1 RES       0.000000
     10 N5          10.3230     8.2160    14.8070 n3         1 RES       0.000000
     11 C6           8.1080     7.5340    15.8850 c3         1 RES       0.000000
     12 H6A          8.4400     6.6410    16.1570 hc         1 RES       0.000000
     13 H6B          7.6670     7.4480    15.0020 hc         1 RES       0.000000
     14 C7           7.1130     8.0680    16.9240 c3         1 RES       0.000000
     15 H7A          6.3180     7.4790    16.9440 hc         1 RES       0.000000
     16 H7B          7.5340     8.0350    17.8200 hc         1 RES       0.000000
     17 C8           6.6620     9.5020    16.6410 c3         1 RES       0.000000
     18 H8A          6.0950     9.8180    17.3900 hc         1 RES       0.000000
     19 H8B          6.1120     9.5140    15.8190 hc         1 RES       0.000000
     20 C9           7.8510    10.4570    16.4700 c3         1 RES       0.000000
     21 H9A          7.5340    11.3610    16.2200 hc         1 RES       0.000000
     22 H9B          8.3620    10.5260    17.3150 hc         1 RES       0.000000
     23 C10         11.1050     6.9840    14.9270 c3         1 RES       0.000000
     24 H10A        11.3690     6.8590    15.8720 h1         1 RES       0.000000
     25 H10B        11.9320     7.0740    14.3920 h1         1 RES       0.000000
     26 C11         10.3540     5.7600    14.4650 ca         1 RES       0.000000
     27 C12         10.4370     4.5830    15.2100 ca         1 RES       0.000000
     28 H12         10.9890     4.5520    15.9830 ha         1 RES       0.000000
     29 C13          9.7170     3.4580    14.8360 ca         1 RES       0.000000
     30 H13          9.7670     2.6670    15.3570 ha         1 RES       0.000000
     31 C14          8.9210     3.4930    13.6910 ca         1 RES       0.000000
     32 H14          8.4210     2.7270    13.4360 ha         1 RES       0.000000
     33 C15          8.8620     4.6430    12.9280 ca         1 RES       0.000000
     34 H15          8.3380     4.6570    12.1360 ha         1 RES       0.000000
     35 C16          9.5620     5.7790    13.3110 ca         1 RES       0.000000
     36 H16          9.5040     6.5710    12.7900 ha         1 RES       0.000000
     37 C17          9.7140    11.9610    14.3350 c3         1 RES       0.000000
     38 H17A         8.9230    11.8940    13.7410 h1         1 RES       0.000000
     39 H17B        10.4970    12.1760    13.7690 h1         1 RES       0.000000
     40 C18          9.4950    13.0910    15.3180 ca         1 RES       0.000000
     41 C19          8.7670    14.1980    14.9090 ca         1 RES       0.000000
     42 H19          8.3870    14.2180    14.0390 ha         1 RES       0.000000
     43 C20          8.5870    15.2840    15.7720 ca         1 RES       0.000000
     44 H20          8.0820    16.0370    15.4850 ha         1 RES       0.000000
     45 C21          9.1380    15.2680    17.0330 ca         1 RES       0.000000
     46 H21          9.0110    16.0090    17.6160 ha         1 RES       0.000000
     47 C22          9.8720    14.1800    17.4540 ca         1 RES       0.000000
     48 H22         10.2550    14.1730    18.3230 ha         1 RES       0.000000
     49 C23         10.0520    13.0890    16.6030 ca         1 RES       0.000000
     50 H23         10.5560    12.3400    16.8990 ha         1 RES       0.000000
     51 C24         12.6250     9.9160    14.9300 c2         1 RES       0.000000
     52 C25         12.7820    10.0820    16.4250 c          1 RES       0.000000
     53 O1          13.2270    11.0760    16.9240 o          1 RES       0.000000
     54 O2          12.3350     9.0190    17.0800 os         1 RES       0.000000
     55 C26         12.4680     9.0860    18.5400 c3         1 RES       0.000000
     56 H26A        13.4080     9.2320    18.7760 h1         1 RES       0.000000
     57 H26B        12.1590     8.2440    18.9350 h1         1 RES       0.000000
     58 H26C        11.9260     9.8260    18.8830 h1         1 RES       0.000000
     59 C27         13.6900     9.9870    14.1190 c2         1 RES       0.000000
     60 C28         15.0790    10.0020    14.6990 c          1 RES       0.000000
     61 O3          15.4520     9.2200    15.5120 o          1 RES       0.000000
     62 O4          15.8250    10.9780    14.1740 os         1 RES       0.000000
     63 C29         17.1810    11.0560    14.7020 c3         1 RES       0.000000
     64 H29A        17.1470    11.1870    15.6740 h1         1 RES       0.000000
     65 H29B        17.6510    11.8090    14.2880 h1         1 RES       0.000000
     66 H29C        17.6570    10.2220    14.5020 h1         1 RES       0.000000
     67 P2          13.4090     9.8320    12.3080 p5         1 RES       0.000000
     68 C30         14.0770    11.3270    11.5500 ca         1 RES       0.000000
     69 C31         14.6090    11.2930    10.2560 ca         1 RES       0.000000
     70 H31         14.6880    10.4670     9.7920 ha         1 RES       0.000000
     71 C32         15.0210    12.4830     9.6530 ca         1 RES       0.000000
     72 H32         15.3850    12.4710     8.7750 ha         1 RES       0.000000
     73 C33         14.9010    13.6750    10.3290 ca         1 RES       0.000000
     74 H33         15.1850    14.4800     9.9100 ha         1 RES       0.000000
     75 C34         14.3710    13.7220    11.6130 ca         1 RES       0.000000
     76 H34         14.2980    14.5510    12.0710 ha         1 RES       0.000000
     77 C35         13.9500    12.5410    12.2180 ca         1 RES       0.000000
     78 H35         13.5730    12.5640    13.0900 ha         1 RES       0.000000
     79 C36         14.4610     8.4410    11.8450 ca         1 RES       0.000000
     80 C37         13.8680     7.2190    11.6170 ca         1 RES       0.000000
     81 H37         12.9230     7.1330    11.6470 ha         1 RES       0.000000
     82 C38         14.6670     6.1000    11.3400 ca         1 RES       0.000000
     83 H38         14.2680     5.2520    11.1870 ha         1 RES       0.000000
     84 C39         16.0610     6.2480    11.2900 ca         1 RES       0.000000
     85 H39         16.6060     5.4950    11.0960 ha         1 RES       0.000000
     86 C40         16.6520     7.4810    11.5240 ca         1 RES       0.000000
     87 H40         17.5970     7.5690    11.4950 ha         1 RES       0.000000
     88 C41         15.8580     8.5840    11.7970 ca         1 RES       0.000000
     89 H41         16.2570     9.4320    11.9520 ha         1 RES       0.000000
@<TRIPOS>BOND
     1     1    67 1   
     2     4     5 1   
     3     4    10 1   
     4     4    51 1   
     5     5     6 1   
     6     5    37 1   
     7     6     7 1   
     8     6     8 1   
     9     6    20 1   
    10     8     9 1   
    11     8    10 1   
    12     8    11 1   
    13    10    23 1   
    14    11    12 1   
    15    11    13 1   
    16    11    14 1   
    17    14    15 1   
    18    14    16 1   
    19    14    17 1   
    20    17    18 1   
    21    17    19 1   
    22    17    20 1   
    23    20    21 1   
    24    20    22 1   
    25    23    24 1   
    26    23    25 1   
    27    23    26 1   
    28    26    27 ar  
    29    26    35 ar  
    30    27    28 1   
    31    27    29 ar  
    32    29    30 1   
    33    29    31 ar  
    34    31    32 1   
    35    31    33 ar  
    36    33    34 1   
    37    33    35 ar  
    38    35    36 1   
    39    37    38 1   
    40    37    39 1   
    41    37    40 1   
    42    40    41 ar  
    43    40    49 ar  
    44    41    42 1   
    45    41    43 ar  
    46    43    44 1   
    47    43    45 ar  
    48    45    46 1   
    49    45    47 ar  
    50    47    48 1   
    51    47    49 ar  
    52    49    50 1   
    53    51    52 1   
    54    51    59 1   
    55    52    53 1   
    56    52    54 1   
    57    54    55 1   
    58    55    56 1   
    59    55    57 1   
    60    55    58 1   
    61    59    60 1   
    62    59    67 1   
    63    60    61 1   
    64    60    62 1   
    65    62    63 1   
    66    63    64 1   
    67    63    65 1   
    68    63    66 1   
    69    67    68 1   
    70    67    79 1   
    71    68    69 ar  
    72    68    77 ar  
    73    69    70 1   
    74    69    71 ar  
    75    71    72 1   
    76    71    73 ar  
    77    73    74 1   
    78    73    75 ar  
    79    75    76 1   
    80    75    77 ar  
    81    77    78 1   
    82    79    80 ar  
    83    79    88 ar  
    84    80    81 1   
    85    80    82 ar  
    86    82    83 1   
    87    82    84 ar  
    88    84    85 1   
    89    84    86 ar  
    90    86    87 1   
    91    86    88 ar  
    92    88    89 1   
    93     1     3 1   
    94     1     2 1   
    95     1     4 1   
@<TRIPOS>SUBSTRUCTURE
     1 RES         1 TEMP              0 ****  ****    0 ROOT
