####################################################################### 
# 
# This file contains crystal structure data downloaded from the 
# Cambridge Structural Database (CSD) hosted by the Cambridge 
# Crystallographic Data Centre (CCDC).
# 
# Full information about CCDC data access policies and citation 
# guidelines are available at http://www.ccdc.cam.ac.uk/access/V1 
# 
# Audit and citation data items may have been added by the CCDC. 
# Please retain this information to preserve the provenance of 
# this file and to allow appropriate attribution of the data. 
# 
#######################################################################
@<TRIPOS>MOLECULE
ACEJOJ
    89    95     1     0     0
SMALL
NO_CHARGES
****
Generated from the CSD

@<TRIPOS>ATOM
     1 Pd1     11.2308   9.6145  11.9933   Pd        1 RES1   0.0000
     2 Cl1      8.8935   9.6215  11.7490   Cl        1 RES1   0.0000
     3 Cl2     11.6479   9.4849   9.6656   Cl        1 RES1   0.0000
     4 P1      10.9736   9.6026  14.1915   P.3       1 RES1   0.0000
     5 N2       9.9346  10.6583  14.9750   N.3       1 RES1   0.0000
     6 C3       8.7276   9.8838  15.3674   C.3       1 RES1   0.0000
     7 H3       8.1622   9.7528  14.5541   H         1 RES1   0.0000
     8 C4       9.2653   8.5201  15.8008   C.3       1 RES1   0.0000
     9 H4       9.6832   8.6089  16.7051   H         1 RES1   0.0000
    10 N5      10.3232   8.2162  14.8074   N.3       1 RES1   0.0000
    11 C6       8.1081   7.5336  15.8847   C.3       1 RES1   0.0000
    12 H6A      8.4398   6.6406  16.1575   H         1 RES1   0.0000
    13 H6B      7.6668   7.4479  15.0018   H         1 RES1   0.0000
    14 C7       7.1130   8.0681  16.9245   C.3       1 RES1   0.0000
    15 H7A      6.3181   7.4790  16.9441   H         1 RES1   0.0000
    16 H7B      7.5338   8.0354  17.8198   H         1 RES1   0.0000
    17 C8       6.6615   9.5019  16.6409   C.3       1 RES1   0.0000
    18 H8A      6.0946   9.8183  17.3900   H         1 RES1   0.0000
    19 H8B      6.1121   9.5144  15.8187   H         1 RES1   0.0000
    20 C9       7.8509  10.4573  16.4697   C.3       1 RES1   0.0000
    21 H9A      7.5338  11.3612  16.2200   H         1 RES1   0.0000
    22 H9B      8.3623  10.5258  17.3151   H         1 RES1   0.0000
    23 C10     11.1050   6.9835  14.9269   C.3       1 RES1   0.0000
    24 H10A    11.3694   6.8588  15.8722   H         1 RES1   0.0000
    25 H10B    11.9320   7.0738  14.3918   H         1 RES1   0.0000
    26 C11     10.3539   5.7601  14.4649   C.2       1 RES1   0.0000
    27 C12     10.4372   4.5834  15.2105   C.2       1 RES1   0.0000
    28 H12     10.9895   4.5523  15.9827   H         1 RES1   0.0000
    29 C13      9.7168   3.4582  14.8359   C.2       1 RES1   0.0000
    30 H13      9.7665   2.6665  15.3567   H         1 RES1   0.0000
    31 C14      8.9205   3.4925  13.6908   C.2       1 RES1   0.0000
    32 H14      8.4208   2.7273  13.4358   H         1 RES1   0.0000
    33 C15      8.8621   4.6427  12.9275   C.2       1 RES1   0.0000
    34 H15      8.3375   4.6567  12.1355   H         1 RES1   0.0000
    35 C16      9.5620   5.7788  13.3109   C.2       1 RES1   0.0000
    36 H16      9.5035   6.5705  12.7901   H         1 RES1   0.0000
    37 C17      9.7139  11.9612  14.3347   C.3       1 RES1   0.0000
    38 H17A     8.9234  11.8942  13.7408   H         1 RES1   0.0000
    39 H17B    10.4971  12.1762  13.7693   H         1 RES1   0.0000
    40 C18      9.4947  13.0911  15.3175   C.2       1 RES1   0.0000
    41 C19      8.7671  14.1976  14.9090   C.2       1 RES1   0.0000
    42 H19      8.3872  14.2178  14.0386   H         1 RES1   0.0000
    43 C20      8.5874  15.2838  15.7723   C.2       1 RES1   0.0000
    44 H20      8.0818  16.0366  15.4851   H         1 RES1   0.0000
    45 C21      9.1382  15.2682  17.0333   C.2       1 RES1   0.0000
    46 H21      9.0111  16.0085  17.6165   H         1 RES1   0.0000
    47 C22      9.8717  14.1804  17.4542   C.2       1 RES1   0.0000
    48 H22     10.2546  14.1726  18.3228   H         1 RES1   0.0000
    49 C23     10.0515  13.0895  16.6034   C.2       1 RES1   0.0000
    50 H23     10.5556  12.3399  16.8995   H         1 RES1   0.0000
    51 C24     12.6246   9.9165  14.9304   C.2       1 RES1   0.0000
    52 C25     12.7824  10.0817  16.4251   C.2       1 RES1   0.0000
    53 O1      13.2266  11.0760  16.9245   O.2       1 RES1   0.0000
    54 O2      12.3353   9.0188  17.0797   O.3       1 RES1   0.0000
    55 C26     12.4682   9.0858  18.5404   C.3       1 RES1   0.0000
    56 H26A    13.4078   9.2323  18.7759   H         1 RES1   0.0000
    57 H26B    12.1585   8.2443  18.9346   H         1 RES1   0.0000
    58 H26C    11.9262   9.8261  18.8829   H         1 RES1   0.0000
    59 C27     13.6898   9.9866  14.1189   C.2       1 RES1   0.0000
    60 C28     15.0794  10.0022  14.6986   C.2       1 RES1   0.0000
    61 O3      15.4520   9.2198  15.5119   O.2       1 RES1   0.0000
    62 O4      15.8246  10.9778  14.1742   O.3       1 RES1   0.0000
    63 C29     17.1806  11.0557  14.7021   C.3       1 RES1   0.0000
    64 H29A    17.1469  11.1866  15.6742   H         1 RES1   0.0000
    65 H29B    17.6511  11.8085  14.2883   H         1 RES1   0.0000
    66 H29C    17.6569  10.2219  14.5024   H         1 RES1   0.0000
    67 P2      13.4085   9.8323  12.3084   P.3       1 RES1   0.0000
    68 C30     14.0770  11.3269  11.5505   C.2       1 RES1   0.0000
    69 C31     14.6089  11.2926  10.2556   C.2       1 RES1   0.0000
    70 H31     14.6878  10.4666   9.7919   H         1 RES1   0.0000
    71 C32     15.0209  12.4833   9.6528   C.2       1 RES1   0.0000
    72 H32     15.3848  12.4708   8.7753   H         1 RES1   0.0000
    73 C33     14.9011  13.6755  10.3288   C.2       1 RES1   0.0000
    74 H33     15.1846  14.4797   9.9096   H         1 RES1   0.0000
    75 C34     14.3707  13.7222  11.6130   C.2       1 RES1   0.0000
    76 H34     14.2976  14.5513  12.0713   H         1 RES1   0.0000
    77 C35     13.9499  12.5409  12.2176   C.2       1 RES1   0.0000
    78 H35     13.5729  12.5643  13.0898   H         1 RES1   0.0000
    79 C36     14.4613   8.4406  11.8448   C.2       1 RES1   0.0000
    80 C37     13.8681   7.2188  11.6165   C.2       1 RES1   0.0000
    81 H37     12.9227   7.1331  11.6468   H         1 RES1   0.0000
    82 C38     14.6673   6.0998  11.3401   C.2       1 RES1   0.0000
    83 H38     14.2684   5.2520  11.1867   H         1 RES1   0.0000
    84 C39     16.0613   6.2479  11.2901   C.2       1 RES1   0.0000
    85 H39     16.6063   5.4951  11.0957   H         1 RES1   0.0000
    86 C40     16.6516   7.4806  11.5238   C.2       1 RES1   0.0000
    87 H40     17.5970   7.5694  11.4952   H         1 RES1   0.0000
    88 C41     15.8582   8.5840  11.7967   C.2       1 RES1   0.0000
    89 H41     16.2571   9.4318  11.9518   H         1 RES1   0.0000
@<TRIPOS>BOND
     1     1    67 1   
     2     4     5 1   
     3     4    10 1   
     4     4    51 1   
     5     5     6 1   
     6     5    37 1   
     7     6     7 1   
     8     6     8 1   
     9     6    20 1   
    10     8     9 1   
    11     8    10 1   
    12     8    11 1   
    13    10    23 1   
    14    11    12 1   
    15    11    13 1   
    16    11    14 1   
    17    14    15 1   
    18    14    16 1   
    19    14    17 1   
    20    17    18 1   
    21    17    19 1   
    22    17    20 1   
    23    20    21 1   
    24    20    22 1   
    25    23    24 1   
    26    23    25 1   
    27    23    26 1   
    28    26    27 ar  
    29    26    35 ar  
    30    27    28 1   
    31    27    29 ar  
    32    29    30 1   
    33    29    31 ar  
    34    31    32 1   
    35    31    33 ar  
    36    33    34 1   
    37    33    35 ar  
    38    35    36 1   
    39    37    38 1   
    40    37    39 1   
    41    37    40 1   
    42    40    41 ar  
    43    40    49 ar  
    44    41    42 1   
    45    41    43 ar  
    46    43    44 1   
    47    43    45 ar  
    48    45    46 1   
    49    45    47 ar  
    50    47    48 1   
    51    47    49 ar  
    52    49    50 1   
    53    51    52 1   
    54    51    59 1   
    55    52    53 1   
    56    52    54 1   
    57    54    55 1   
    58    55    56 1   
    59    55    57 1   
    60    55    58 1   
    61    59    60 1   
    62    59    67 1   
    63    60    61 1   
    64    60    62 1   
    65    62    63 1   
    66    63    64 1   
    67    63    65 1   
    68    63    66 1   
    69    67    68 1   
    70    67    79 1   
    71    68    69 ar  
    72    68    77 ar  
    73    69    70 1   
    74    69    71 ar  
    75    71    72 1   
    76    71    73 ar  
    77    73    74 1   
    78    73    75 ar  
    79    75    76 1   
    80    75    77 ar  
    81    77    78 1   
    82    79    80 ar  
    83    79    88 ar  
    84    80    81 1   
    85    80    82 ar  
    86    82    83 1   
    87    82    84 ar  
    88    84    85 1   
    89    84    86 ar  
    90    86    87 1   
    91    86    88 ar  
    92    88    89 1   
    93     1     3 1   
    94     1     2 1   
    95     1     4 1 
@<TRIPOS>SUBSTRUCTURE