@<TRIPOS>MOLECULE
ACETIL
   21    21     1     0     0
SMALL
No Charge or Current Charge


@<TRIPOS>ATOM
      1 Pd1         12.3160     0.5770     3.0100 Pd         1 RES       0.185802
      2 Cl2         13.8740    -0.4740     4.3720 cl         1 RES      -0.510305
      3 Cl3         13.9030     1.2990     1.5000 cl         1 RES      -0.510305
      4 N4          10.8540     1.4680     1.9380 ny         1 RES      -0.219975
      5 H5          10.8470     2.3700     2.1200 hn         1 RES       0.199166
      6 H6          11.0230     1.3600     1.0400 hn         1 RES       0.199166
      7 N7          10.7680     0.0290     4.2150 ny         1 RES      -0.232500
      8 H8          10.6430    -0.8810     4.1650 hn         1 RES       0.226562
      9 H9          10.9640     0.2440     5.0870 hn         1 RES       0.226562
     10 C10          9.5160     0.8760     2.2720 c3         1 RES       0.517901
     11 C11          8.4080     1.8210     1.8150 c3         1 RES      -0.404065
     12 H12          7.5370     1.4470     2.0660 hc         1 RES       0.104676
     13 H13          8.4500     1.9280     0.8430 hc         1 RES       0.104676
     14 H14          8.5240     2.6940     2.2460 hc         1 RES       0.104676
     15 C15          9.3980    -0.4800     1.5900 c3         1 RES      -0.404065
     16 H16         10.1110    -1.0700     1.9110 hc         1 RES       0.104676
     17 H17          9.4780    -0.3660     0.6200 hc         1 RES       0.104676
     18 H18          8.5270    -0.8760     1.8010 hc         1 RES       0.104676
     19 C19          9.5260     0.7300     3.7920 c3         1 RES       0.097464
     20 H20          9.4840     1.6240     4.2140 hx         1 RES       0.000266
     21 H21          8.7330     0.2120     4.0840 hx         1 RES       0.000266
@<TRIPOS>BOND
     1     1     2 1   
     2     1     3 1   
     3     1     4 1   
     4     1     7 1   
     5     4     5 1   
     6     4     6 1   
     7     4    10 1   
     8     7     8 1   
     9     7     9 1   
    10     7    19 1   
    11    10    11 1   
    12    10    15 1   
    13    10    19 1   
    14    11    12 1   
    15    11    13 1   
    16    11    14 1   
    17    15    16 1   
    18    15    17 1   
    19    15    18 1   
    20    19    20 1   
    21    19    21 1   
@<TRIPOS>SUBSTRUCTURE
     1 RES         1 TEMP              0 ****  ****    0 ROOT
