####################################################################### 
# 
# This file contains crystal structure data downloaded from the 
# Cambridge Structural Database (CSD) hosted by the Cambridge 
# Crystallographic Data Centre (CCDC).
# 
# Full information about CCDC data access policies and citation 
# guidelines are available at http://www.ccdc.cam.ac.uk/access/V1 
# 
# Audit and citation data items may have been added by the CCDC. 
# Please retain this information to preserve the provenance of 
# this file and to allow appropriate attribution of the data. 
# 
#######################################################################
@<TRIPOS>MOLECULE
ACETIL
    21    21     6     0     0
SMALL
NO_CHARGES
****
Generated from the CSD

@<TRIPOS>ATOM
     1 Pd1     12.3157     0.5767     3.0099 Pd  1 RES1    0.185802
     2 Cl2     13.8744    -0.4738     4.3718 Cl  1 RES1   -0.510305
     3 Cl3     13.9026     1.2992     1.4996 Cl  1 RES1   -0.510305
     4 N4      10.8544     1.4685     1.9378 N   1 RES1   -0.219975
     5 H5      10.8466     2.3699     2.1204 H   1 RES1    0.199166
     6 H6      11.0228     1.3604     1.0395 H   1 RES1    0.199166
     7 N7      10.7682     0.0287     4.2148 N   1 RES1   -0.232500
     8 H8      10.6427    -0.8810     4.1648 H   1 RES1    0.226562
     9 H9      10.9636     0.2443     5.0869 H   1 RES1    0.226562
     10 C10     9.5164     0.8764     2.2723 C   1 RES1    0.517901
     11 C11     8.4080     1.8209     1.8155 C   1 RES1   -0.404065
     12 H12     7.5369     1.4466     2.0659 H   1 RES1    0.104676
     13 H13     8.4500     1.9283     0.8429 H   1 RES1    0.104676
     14 H14     8.5237     2.6936     2.2460 H   1 RES1    0.104676
     15 C15     9.3978    -0.4802     1.5900 C   1 RES1   -0.404065
     16 H16    10.1113    -1.0700     1.9105 H   1 RES1    0.104676
     17 H17     9.4783    -0.3660     0.6198 H   1 RES1    0.104676
     18 H18     8.5275    -0.8764     1.8014 H   1 RES1    0.104676
     19 C19     9.5258     0.7297     3.7917 C   1 RES1    0.097464
     20 H20     9.4838     1.6236     4.2143 H   1 RES1    0.000266
     21 H21     8.7333     0.2117     4.0838 H   1 RES1    0.000266
@<TRIPOS>BOND
1 1 2 1
2 1 3 1
3 1 4 1
4 1 7 1
5 4 5 1
6 4 6 1
7 4 10 1
8 7 8 1
9 7 9 1
10 7 19 1
11 10 11 1
12 10 15 1
13 10 19 1
14 11 12 1
15 11 13 1
16 11 14 1
17 15 16 1
18 15 17 1
19 15 18 1
20 19 20 1
21 19 21 1
@<TRIPOS>SUBSTRUCTURE

