@<TRIPOS>MOLECULE
ABIDIB
   73    74     1     0     0
SMALL
No Charge or Current Charge


@<TRIPOS>ATOM
      1 Pd1          2.2440     3.8050     4.5210 Pd         1 RES       0.283175
      2 O1           3.4970     4.8420     5.7270 os         1 RES      -0.883545
      3 O2           2.2710     6.6610     6.2310 o          1 RES      -0.883545
      4 N1           1.2280     5.5220     3.8890 nx         1 RES      -0.050271
      5 H1           1.4850     6.1100     4.5480 hn         1 RES       0.256269
      6 C1           1.7400     6.1300     2.6290 c3         1 RES       0.036659
      7 H1A          1.2230     6.9720     2.4730 hx         1 RES       0.021500
      8 C2           1.5530     5.2540     1.4110 c3         1 RES      -0.076386
      9 H2A          0.5940     5.0400     1.2990 hc         1 RES       0.051855
     10 H2B          2.0460     4.4040     1.5340 hc         1 RES       0.051855
     11 C3           2.0690     5.9670     0.1580 c3         1 RES      -0.014200
     12 H3A          1.9740     5.3690    -0.6240 hc         1 RES      -0.012958
     13 H3B          1.5240     6.7770    -0.0080 hc         1 RES      -0.012958
     14 C4           3.5230     6.3650     0.3150 c3         1 RES       0.226715
     15 H4A          4.0820     5.5510     0.3850 hc         1 RES      -0.058645
     16 H4B          3.8150     6.8700    -0.4860 hc         1 RES      -0.058645
     17 C5           3.7160     7.2190     1.5480 c3         1 RES      -0.014200
     18 H5A          3.2340     8.0760     1.4320 hc         1 RES      -0.012958
     19 H5B          4.6790     7.4220     1.6570 hc         1 RES      -0.012958
     20 C6           3.2050     6.5190     2.7990 c3         1 RES      -0.076386
     21 H6A          3.3000     7.1220     3.5780 hc         1 RES       0.051855
     22 H6B          3.7460     5.7080     2.9690 hc         1 RES       0.051855
     23 C7          -0.2670     5.3580     3.9570 c3         1 RES       0.493979
     24 H7A         -0.5270     4.6070     3.3500 hx         1 RES      -0.035459
     25 C8          -1.0260     6.6040     3.5280 c3         1 RES      -0.434554
     26 H8A         -0.8970     6.7500     2.5670 hc         1 RES       0.104821
     27 H8B         -0.6890     7.3790     4.0250 hc         1 RES       0.104821
     28 H8C         -1.9800     6.4850     3.7160 hc         1 RES       0.104821
     29 C9          -0.6430     4.9790     5.3680 c3         1 RES      -0.434554
     30 H9A         -0.2020     4.1390     5.6100 hc         1 RES       0.104821
     31 H9B         -1.6150     4.8670     5.4280 hc         1 RES       0.104821
     32 H9C         -0.3570     5.6860     5.9830 hc         1 RES       0.104821
     33 C10          3.2410     5.9170     6.3890 c          1 RES       1.112167
     34 C11          4.2620     6.2290     7.4560 c3         1 RES      -0.170439
     35 H11A         3.9670     7.0070     7.9730 hc         1 RES       0.039145
     36 H11B         5.1250     6.4250     7.0340 hc         1 RES       0.039145
     37 H11C         4.3580     5.4580     8.0520 hc         1 RES       0.039145
     38 O3           0.9910     2.7670     3.3160 os         1 RES      -0.883545
     39 O4           2.2170     0.9480     2.8110 o          1 RES      -0.883545
     40 N2           3.2600     2.0870     5.1530 nx         1 RES      -0.050271
     41 H10          3.0030     1.4990     4.4940 hn         1 RES       0.256269
     42 C12          2.7480     1.4790     6.4140 c3         1 RES       0.036659
     43 H12          3.2650     0.6370     6.5690 hx         1 RES       0.021500
     44 C13          2.9340     2.3550     7.6320 c3         1 RES      -0.076386
     45 H13          3.8940     2.5690     7.7430 hc         1 RES       0.051855
     46 H14          2.4420     3.2050     7.5080 hc         1 RES       0.051855
     47 C14          2.4190     1.6420     8.8840 c3         1 RES      -0.014200
     48 H15          2.5140     2.2400     9.6660 hc         1 RES      -0.012958
     49 H16          2.9640     0.8320     9.0510 hc         1 RES      -0.012958
     50 C15          0.9650     1.2440     8.7280 c3         1 RES       0.226715
     51 H17          0.4060     2.0590     8.6570 hc         1 RES      -0.058645
     52 H18          0.6730     0.7400     9.5280 hc         1 RES      -0.058645
     53 C16          0.7720     0.3900     7.4940 c3         1 RES      -0.014200
     54 H19          1.2540    -0.4660     7.6100 hc         1 RES      -0.012958
     55 H20         -0.1910     0.1870     7.3850 hc         1 RES      -0.012958
     56 C17          1.2830     1.0900     6.2440 c3         1 RES      -0.076386
     57 H21          1.1880     0.4870     5.4640 hc         1 RES       0.051855
     58 H22          0.7420     1.9020     6.0740 hc         1 RES       0.051855
     59 C18          4.7550     2.2520     5.0850 c3         1 RES       0.493979
     60 H23          5.0150     3.0020     5.6920 hx         1 RES      -0.035459
     61 C19          5.5140     1.0060     5.5140 c3         1 RES      -0.434554
     62 H24          5.3850     0.8600     6.4750 hc         1 RES       0.104821
     63 H25          5.1770     0.2310     5.0180 hc         1 RES       0.104821
     64 H26          6.4680     1.1240     5.3270 hc         1 RES       0.104821
     65 C20          5.1310     2.6300     3.6750 c3         1 RES      -0.434554
     66 H27          4.6890     3.4710     3.4330 hc         1 RES       0.104821
     67 H28          6.1030     2.7420     3.6140 hc         1 RES       0.104821
     68 H29          4.8450     1.9230     3.0590 hc         1 RES       0.104821
     69 C21          1.2470     1.6920     2.6530 c          1 RES       1.112167
     70 C22          0.2260     1.3800     1.5870 c3         1 RES      -0.170439
     71 H30          0.5210     0.6020     1.0700 hc         1 RES       0.039145
     72 H31         -0.6370     1.1840     2.0080 hc         1 RES       0.039145
     73 H32          0.1300     2.1510     0.9900 hc         1 RES       0.039145
@<TRIPOS>BOND
     1     1     2 1   
     2     1     4 1   
     3     1    38 1   
     4     1    40 1   
     5     2    33 1   
     6     3    33 2   
     7     4     5 1   
     8     4     6 1   
     9     4    23 1   
    10     6     7 1   
    11     6     8 1   
    12     6    20 1   
    13     8     9 1   
    14     8    10 1   
    15     8    11 1   
    16    11    12 1   
    17    11    13 1   
    18    11    14 1   
    19    14    15 1   
    20    14    16 1   
    21    14    17 1   
    22    17    18 1   
    23    17    19 1   
    24    17    20 1   
    25    20    21 1   
    26    20    22 1   
    27    23    24 1   
    28    23    25 1   
    29    23    29 1   
    30    25    26 1   
    31    25    27 1   
    32    25    28 1   
    33    29    30 1   
    34    29    31 1   
    35    29    32 1   
    36    33    34 1   
    37    34    35 1   
    38    34    36 1   
    39    34    37 1   
    40    38    69 1   
    41    39    69 2   
    42    40    41 1   
    43    40    42 1   
    44    40    59 1   
    45    42    43 1   
    46    42    44 1   
    47    42    56 1   
    48    44    45 1   
    49    44    46 1   
    50    44    47 1   
    51    47    48 1   
    52    47    49 1   
    53    47    50 1   
    54    50    51 1   
    55    50    52 1   
    56    50    53 1   
    57    53    54 1   
    58    53    55 1   
    59    53    56 1   
    60    56    57 1   
    61    56    58 1   
    62    59    60 1   
    63    59    61 1   
    64    59    65 1   
    65    61    62 1   
    66    61    63 1   
    67    61    64 1   
    68    65    66 1   
    69    65    67 1   
    70    65    68 1   
    71    69    70 1   
    72    70    71 1   
    73    70    72 1   
    74    70    73 1   
@<TRIPOS>SUBSTRUCTURE
     1 RES         1 TEMP              0 ****  ****    0 ROOT
