####################################################################### 
# 
# This file contains crystal structure data downloaded from the 
# Cambridge Structural Database (CSD) hosted by the Cambridge 
# Crystallographic Data Centre (CCDC).
# 
# Full information about CCDC data access policies and citation 
# guidelines are available at http://www.ccdc.cam.ac.uk/access/V1 
# 
# Audit and citation data items may have been added by the CCDC. 
# Please retain this information to preserve the provenance of 
# this file and to allow appropriate attribution of the data. 
# 
#######################################################################
@<TRIPOS>MOLECULE
ABIDIB
    73    74     1     0     0
SMALL
NO_CHARGES
****
Generated from the CSD

@<TRIPOS>ATOM
     1 Pd1      2.2439   3.8046   4.5213   Pd        1 RES1    0.283175
     2 O1       3.4973   4.8420   5.7266   O.co2     1 RES1   -0.883545
     3 O2       2.2705   6.6610   6.2312   O.co2     1 RES1   -0.883545
     4 N1       1.2282   5.5221   3.8892   N.3       1 RES1   -0.050271
     5 H1       1.4853   6.1102   4.5484   H         1 RES1    0.256269
     6 C1       1.7401   6.1302   2.6287   C.3       1 RES1    0.036659
     7 H1A      1.2228   6.9723   2.4731   H         1 RES1    0.021500
     8 C2       1.5534   5.2540   1.4106   C.3       1 RES1   -0.076386
     9 H2A      0.5935   5.0399   1.2994   H         1 RES1    0.051855
    10 H2B      2.0464   4.4042   1.5345   H         1 RES1    0.051855
    11 C3       2.0689   5.9673   0.1582   C.3       1 RES1   -0.014200
    12 H3A      1.9742   5.3690  -0.6239   H         1 RES1   -0.012958
    13 H3B      1.5238   6.7772  -0.0081   H         1 RES1   -0.012958
    14 C4       3.5229   6.3649   0.3147   C.3       1 RES1    0.226715
    15 H4A      4.0816   5.5505   0.3852   H         1 RES1   -0.058645
    16 H4B      3.8148   6.8696  -0.4856   H         1 RES1   -0.058645
    17 C5       3.7163   7.2189   1.5481   C.3       1 RES1   -0.014200
    18 H5A      3.2338   8.0757   1.4323   H         1 RES1   -0.012958
    19 H5B      4.6788   7.4222   1.6575   H         1 RES1   -0.012958
    20 C6       3.2047   6.5195   2.7987   C.3       1 RES1   -0.076386
    21 H6A      3.2997   7.1224   3.5781   H         1 RES1    0.051855
    22 H6B      3.7457   5.7076   2.9687   H         1 RES1    0.051855
    23 C7      -0.2667   5.3577   3.9570   C.3       1 RES1    0.493979
    24 H7A     -0.5273   4.6069   3.3503   H         1 RES1   -0.035459
    25 C8      -1.0257   6.6035   3.5284   C.3       1 RES1   -0.434554
    26 H8A     -0.8973   6.7496   2.5672   H         1 RES1    0.104821
    27 H8B     -0.6889   7.3786   4.0248   H         1 RES1    0.104821
    28 H8C     -1.9804   6.4849   3.7156   H         1 RES1    0.104821
    29 C9      -0.6428   4.9794   5.3676   C.3       1 RES1   -0.434554
    30 H9A     -0.2015   4.1386   5.6100   H         1 RES1    0.104821
    31 H9B     -1.6147   4.8671   5.4282   H         1 RES1    0.104821
    32 H9C     -0.3574   5.6865   5.9834   H         1 RES1    0.104821
    33 C10      3.2412   5.9170   6.3895   C.2       1 RES1    1.112167
    34 C11      4.2618   6.2294   7.4556   C.3       1 RES1   -0.170439
    35 H11A     3.9666   7.0074   7.9728   H         1 RES1    0.039145
    36 H11B     5.1247   6.4254   7.0342   H         1 RES1    0.039145
    37 H11C     4.3577   5.4577   8.0524   H         1 RES1    0.039145
    38 O1       0.9906   2.7672   3.3159   O.co2     1 RES1   -0.883545
    39 O2       2.2174   0.9482   2.8113   O.co2     1 RES1   -0.883545
    40 N1       3.2597   2.0871   5.1533   N.3       1 RES1   -0.050271
    41 H1       3.0026   1.4991   4.4941   H         1 RES1    0.256269
    42 C1       2.7478   1.4790   6.4139   C.3       1 RES1    0.036659
    43 H1A      3.2651   0.6369   6.5694   H         1 RES1    0.021500
    44 C2       2.9345   2.3552   7.6319   C.3       1 RES1   -0.076386
    45 H2A      3.8944   2.5693   7.7431   H         1 RES1    0.051855
    46 H2B      2.4415   3.2051   7.5080   H         1 RES1    0.051855
    47 C3       2.4189   1.6419   8.8843   C.3       1 RES1   -0.014200
    48 H3A      2.5137   2.2403   9.6665   H         1 RES1   -0.012958
    49 H3B      2.9641   0.8321   9.0507   H         1 RES1   -0.012958
    50 C4       0.9649   1.2444   8.7278   C.3       1 RES1    0.226715
    51 H4A      0.4063   2.0588   8.6573   H         1 RES1   -0.058645
    52 H4B      0.6731   0.7397   9.5281   H         1 RES1   -0.058645
    53 C5       0.7716   0.3903   7.4944   C.3       1 RES1   -0.014200
    54 H5A      1.2541  -0.4664   7.6102   H         1 RES1   -0.012958
    55 H5B     -0.1909   0.1871   7.3850   H         1 RES1   -0.012958
    56 C6       1.2832   1.0897   6.2439   C.3       1 RES1   -0.076386
    57 H6A      1.1882   0.4868   5.4644   H         1 RES1    0.051855
    58 H6B      0.7422   1.9016   6.0739   H         1 RES1    0.051855
    59 C7       4.7546   2.2515   5.0855   C.3       1 RES1    0.493979
    60 H7A      5.0152   3.0023   5.6923   H         1 RES1   -0.035459
    61 C8       5.5136   1.0057   5.5141   C.3       1 RES1   -0.434554
    62 H8A      5.3852   0.8596   6.4754   H         1 RES1    0.104821
    63 H8B      5.1768   0.2306   5.0177   H         1 RES1    0.104821
    64 H8C      6.4683   1.1244   5.3270   H         1 RES1    0.104821
    65 C9       5.1307   2.6299   3.6749   C.3       1 RES1   -0.434554
    66 H9A      4.6894   3.4707   3.4325   H         1 RES1    0.104821
    67 H9B      6.1026   2.7422   3.6143   H         1 RES1    0.104821
    68 H9C      4.8453   1.9227   3.0591   H         1 RES1    0.104821
    69 C10      1.2467   1.6922   2.6531   C.2       1 RES1    1.112167
    70 C11      0.2261   1.3799   1.5870   C.3       1 RES1   -0.170439
    71 H11A     0.5213   0.6018   1.0697   H         1 RES1    0.039145
    72 H11B    -0.6368   1.1839   2.0083   H         1 RES1    0.039145
    73 H11C     0.1302   2.1515   0.9902   H         1 RES1    0.039145
@<TRIPOS>BOND
     1     1     2    1
     2     1     4    1
     3     1    38    1
     4     1    40    1
     5     2    33    1
     6     3    33    2
     7     4     5    1
     8     4     6    1
     9     4    23    1
    10     6     7    1
    11     6     8    1
    12     6    20    1
    13     8     9    1
    14     8    10    1
    15     8    11    1
    16    11    12    1
    17    11    13    1
    18    11    14    1
    19    14    15    1
    20    14    16    1
    21    14    17    1
    22    17    18    1
    23    17    19    1
    24    17    20    1
    25    20    21    1
    26    20    22    1
    27    23    24    1
    28    23    25    1
    29    23    29    1
    30    25    26    1
    31    25    27    1
    32    25    28    1
    33    29    30    1
    34    29    31    1
    35    29    32    1
    36    33    34    1
    37    34    35    1
    38    34    36    1
    39    34    37    1
    40    38    69    1
    41    39    69    2
    42    40    41    1
    43    40    42    1
    44    40    59    1
    45    42    43    1
    46    42    44    1
    47    42    56    1
    48    44    45    1
    49    44    46    1
    50    44    47    1
    51    47    48    1
    52    47    49    1
    53    47    50    1
    54    50    51    1
    55    50    52    1
    56    50    53    1
    57    53    54    1
    58    53    55    1
    59    53    56    1
    60    56    57    1
    61    56    58    1
    62    59    60    1
    63    59    61    1
    64    59    65    1
    65    61    62    1
    66    61    63    1
    67    61    64    1
    68    65    66    1
    69    65    67    1
    70    65    68    1
    71    69    70    1
    72    70    71    1
    73    70    72    1
    74    70    73    1
@<TRIPOS>SUBSTRUCTURE
     1 RES1        1 GROUP             0 ****  ****    0  
@<TRIPOS>CRYSIN
    8.0897    8.6024    9.4694   93.8820  106.2460   96.3580     2     1
