####################################################################### 
# 
# This file contains crystal structure data downloaded from the 
# Cambridge Structural Database (CSD) hosted by the Cambridge 
# Crystallographic Data Centre (CCDC).
# 
# Full information about CCDC data access policies and citation 
# guidelines are available at http://www.ccdc.cam.ac.uk/access/V1 
# 
# Audit and citation data items may have been added by the CCDC. 
# Please retain this information to preserve the provenance of 
# this file and to allow appropriate attribution of the data. 
# 
#######################################################################
@<TRIPOS>MOLECULE
ABOFAZ
   49    50     1     0     0
SMALL
NO_CHARGES
****
Generated from the CSD

@<TRIPOS>ATOM
     1 Pd1      1.5217   2.4400  13.1419   Pd        1 RES1     0.125595
     2 Cl1      1.6014   4.5825  13.9620   Cl        1 RES1    -0.494068
     3 Cl2      2.0739   3.2174  11.0560   Cl        1 RES1    -0.494068
     4 S1       0.7402  -0.2493  16.7077   S.3       1 RES1    -0.255991
     5 S2       1.1586  -2.0082  12.2941   S.3       1 RES1    -0.255991
     6 N1       1.1045   1.6110  14.9554   N.2       1 RES1     0.070058
     7 N2       1.2982   0.5652  12.4069   N.2       1 RES1     0.070058
     8 C1       0.6662   3.9872  17.8982   C.3       1 RES1    -0.216030
     9 H1       1.3293   4.4182  18.4404   H         1 RES1     0.039720
    10 H2       0.0508   3.5120  18.4609   H         1 RES1     0.039720
    11 H3       0.1896   4.6477  17.3896   H         1 RES1     0.039720
    12 C2       1.3366   3.0206  16.9588   C.3       1 RES1     0.465796
    13 H4       1.8349   2.3709  17.4790   H         1 RES1    -0.088329
    14 H5       1.9686   3.5053  16.4048   H         1 RES1    -0.088329
    15 C3       0.3450   2.2849  16.0589   C.3       1 RES1    -0.158418
    16 H6      -0.2932   2.9226  15.6779   H         1 RES1     0.095774
    17 C4      -0.3999   1.1801  16.7653   C.3       1 RES1     0.100012
    18 H7      -1.2319   0.9773  16.3095   H         1 RES1     0.079882
    19 H8      -0.5958   1.4284  17.6827   H         1 RES1     0.079882
    20 C5       1.4246   0.3960  15.2456   C.2       1 RES1     0.070713
    21 C6       2.3457  -0.4511  14.3810   C.3       1 RES1     0.046281
    22 C7       2.5903  -1.8433  14.9950   C.3       1 RES1     0.021503
    23 H9       2.7830  -1.7291  15.9388   H         1 RES1     0.023323
    24 H10      1.7686  -2.3547  14.9261   H         1 RES1     0.023323
    25 C8       3.7175  -2.6622  14.3707   C.3       1 RES1     0.115585
    26 H11      3.8812  -3.4449  14.9188   H         1 RES1    -0.025587
    27 H12      3.4388  -2.9669  13.4929   H         1 RES1    -0.025587
    28 C9       4.9847  -1.8902  14.2373   C.3       1 RES1     0.045605
    29 H13      5.6291  -2.4138  13.7361   H         1 RES1    -0.021412
    30 H14      5.3546  -1.7238  15.1181   H         1 RES1    -0.021412
    31 C10      4.7536  -0.5612  13.5280   C.3       1 RES1     0.115585
    32 H15      5.5867  -0.0671  13.4899   H         1 RES1    -0.025587
    33 H16      4.4604  -0.7290  12.6180   H         1 RES1    -0.025587
    34 C11      3.7196   0.2591  14.2417   C.3       1 RES1     0.021503
    35 H17      3.5942   1.0915  13.7596   H         1 RES1     0.023323
    36 H18      4.0501   0.4779  15.1269   H         1 RES1     0.023323
    37 C12      1.6526  -0.5101  13.0092   C.2       1 RES1     0.070713
    38 C13      0.5792  -1.1371  10.8227   C.3       1 RES1     0.100012
    39 H19      1.2143  -1.2432  10.0973   H         1 RES1     0.079882
    40 H20     -0.2777  -1.4915  10.5369   H         1 RES1     0.079882
    41 C14      0.4455   0.3383  11.1994   C.3       1 RES1    -0.158418
    42 H21      0.8196   0.8699  10.4651   H         1 RES1     0.095774
    43 C15     -0.9542   0.8162  11.4412   C.3       1 RES1     0.465796
    44 H22     -0.9252   1.7640  11.6449   H         1 RES1    -0.088329
    45 H23     -1.4630   0.7088  10.6219   H         1 RES1    -0.088329
    46 C16     -1.6702   0.1222  12.5344   C.3       1 RES1    -0.216030
    47 H24     -2.5550   0.4846  12.6180   H         1 RES1     0.039720
    48 H25     -1.1936   0.2457  13.3580   H         1 RES1     0.039720
    49 H26     -1.7261  -0.8162  12.3351   H         1 RES1     0.039720
@<TRIPOS>BOND
1    1    7    1
2    1    6    1
3    1    2    1
4    1    3    1
5    4    20   1
6    5    37   1
7    6    15   1
8    6    20   2
9    7    37   2
10   7    41   1
11   8    9    1
12   8    10   1
13   8    11   1
14   8    12   1
15   12   13   1
16   12   14   1
17   12   15   1
18   15   16   1
19   15   17   1
20   17   18   1
21   17   19   1
22   20   21   1
23   21   22   1
24   21   34   1
25   21   37   1
26   22   23   1
27   22   24   1
28   22   25   1
29   25   26   1
30   25   27   1
31   25   28   1
32   28   29   1
33   28   30   1
34   28   31   1
35   31   32   1
36   31   33   1
37   31   34   1
38   34   35   1
39   34   36   1
40   38   39   1
41   38   40   1
42   38   41   1
43   41   42   1
44   41   43   1
45   43   44   1
46   43   45   1
47   43   46   1
48   46   47   1
49   46   48   1
50   46   49   1
