# 
# Created by GaussView 5.0.8
#

#
#

@<TRIPOS>MOLECULE
Molecule Name
35 36
SMALL
NO_CHARGES


@<TRIPOS>ATOM
1 C1     2.1409     1.9408    -0.1112 C   1 RES1   1.124451
2 C2     3.1943     2.7181    -0.8996 C   1 RES1  -0.499331
3 C3     1.7203     2.4916     1.1624 C   1 RES1  -0.677103
4 C4     0.6670     2.0335     1.9508 C   1 RES1   1.124451
5 C5     1.2688     1.7594     3.3416 C   1 RES1  -0.499331
6 O6     1.5796     0.9215    -0.7076 O   1 RES1  -1.040730
7 O7    -0.0865     1.0039     1.6779 O   1 RES1  -1.040730
8 Pd8    0.0000     0.0000     0.0000 Pd  1 RES1   0.886824
9 O9    -1.5796    -0.9215     0.7076 O   1 RES1  -1.040730
10 O10   0.0865    -1.0039    -1.6779 O   1 RES1  -1.040730
11 C11  -2.1409    -1.9408     0.1112 C   1 RES1   1.124451
12 C12  -0.6670    -2.0335    -1.9508 C   1 RES1   1.124451
13 C13  -3.1943    -2.7181     0.8996 C   1 RES1  -0.499331
14 C14  -1.7203    -2.4916    -1.1624 C   1 RES1  -0.677103
15 C15   0.2918    -3.2280    -2.1099 C   1 RES1  -0.499331
16 H16   2.3599     1.1464     0.5714 H   1 RES1  -0.147798
17 H17   3.4707     3.5968    -0.3552 H   1 RES1   0.067623
18 H18   4.0572     2.1024    -1.0450 H   1 RES1   0.067623
19 H19   2.7925     2.9993    -1.8506 H   1 RES1   0.067623
20 H20   2.5751     2.3365     1.7870 H   1 RES1  -0.022616
21 H21   1.4171     3.4856     0.9077 H   1 RES1  -0.022616
22 H22   0.0008     2.8635     2.0613 H   1 RES1  -0.147798
23 H23   0.5027     1.4022     3.9976 H   1 RES1   0.067623
24 H24   1.6826     2.6640     3.7357 H   1 RES1   0.067623
25 H25   2.0392     1.0216     3.2578 H   1 RES1   0.067623
26 H26  -2.3599    -1.1464    -0.5714 H   1 RES1  -0.147798
27 H27  -1.0851    -1.8431    -2.9171 H   1 RES1  -0.147798
28 H28  -3.3106    -2.2790     1.8684 H   1 RES1   0.067623
29 H29  -2.8820    -3.7361     1.0045 H   1 RES1   0.067623
30 H30  -4.1278    -2.6834     0.3779 H   1 RES1   0.067623
31 H31  -1.4171    -3.4856    -0.9077 H   1 RES1  -0.022616
32 H32  -2.5751    -2.3365    -1.7870 H   1 RES1  -0.022616
33 H33   1.2988    -2.9000    -1.9571 H   1 RES1   0.067623
34 H34   0.0482    -3.9796    -1.3883 H   1 RES1   0.067623
35 H35   0.1948    -3.6345    -3.0949 H   1 RES1   0.067623
@<TRIPOS>BOND
1 1 2 1
2 1 3 1
3 1 6 1
4 1 16 1
5 2 17 1
6 2 18 1
7 2 19 1
8 3 4 1
9 3 20 1
10 3 21 1
11 4 5 1
12 4 7 1
13 4 22 1
14 5 23 1
15 5 24 1
16 5 25 1
17 6 8 1
18 7 8 1
19 8 9 1
20 8 10 1
21 9 11 1
22 10 12 1
23 11 13 1
24 11 14 1
25 11 26 1
26 12 15 1
27 12 14 1
28 12 27 1
29 13 28 1
30 13 29 1
31 13 30 1
32 14 31 1
33 14 32 1
34 15 33 1
35 15 34 1
36 15 35 1
