####################################################################### 
# 
# This file contains crystal structure data downloaded from the 
# Cambridge Structural Database (CSD) hosted by the Cambridge 
# Crystallographic Data Centre (CCDC).
# 
# Full information about CCDC data access policies and citation 
# guidelines are available at http://www.ccdc.cam.ac.uk/access/V1 
# 
# Audit and citation data items may have been added by the CCDC. 
# Please retain this information to preserve the provenance of 
# this file and to allow appropriate attribution of the data. 
# 
#######################################################################
@<TRIPOS>MOLECULE
ACIVOA
    77    80     1     0     0
SMALL
NO_CHARGES
****
Generated from the CSD

@<TRIPOS>ATOM
     1 Pd1     -0.0560  12.9885  10.2934   Pd        1 RES1    0.089871
     2 Cl1      1.2844  12.9885  12.1333   Cl        1 RES1   -0.521369
     3 Cl2     -1.4784  12.9885   8.5040   Cl        1 RES1   -0.521369
     4 N1       2.3169  11.9177   8.8498   N.pl3     1 RES1    0.009843
     5 N2      -1.7153  12.9885  11.5599   N.2       1 RES1    0.047779
     6 N3      -2.9802  12.9885  11.1773   N.pl3     1 RES1   -0.259835
     7 H3      -3.2451  12.9885  10.3590   H         1 RES1    0.352577
     8 C1       1.5833  12.9885   9.2140   C.3       1 RES1    0.310375
     9 C2       3.5057  12.3299   8.2837   C.2       1 RES1   -0.282466
    10 H2       4.1824  11.7797   7.9621   H         1 RES1    0.285746
    11 C3       1.8866  10.5359   8.8669   C.2       1 RES1   -0.083474
    12 C4       2.3255   9.7081   9.8928   C.2       1 RES1    0.190754
    13 C5       1.9020   8.3786   9.8328   C.2       1 RES1    0.049220
    14 H5       2.1583   7.7931  10.5086   H         1 RES1    0.181977
    15 C6       1.1321   7.9185   8.8221   C.2       1 RES1   -0.287395
    16 H6       0.8609   7.0294   8.8160   H         1 RES1    0.220119
    17 C7       0.7482   8.7536   7.8084   C.2       1 RES1    0.049220
    18 H7       0.2309   8.4165   7.1133   H         1 RES1    0.181977
    19 C8       1.1111  10.0846   7.7972   C.2       1 RES1    0.190754
    20 C9       3.2712  10.1679  10.9707   C.3       1 RES1    0.132802
    21 H9       3.2621  11.1476  10.9788   H         1 RES1    0.050713
    22 C10      2.8817   9.6894  12.3528   C.3       1 RES1   -0.309927
    23 H10A     2.0004  10.0029  12.5635   H         1 RES1    0.105204
    24 H10B     3.5066  10.0306  12.9971   H         1 RES1    0.105204
    25 H10C     2.8936   8.7300  12.3742   H         1 RES1    0.105204
    26 C11      4.6910   9.7154  10.6266   C.3       1 RES1   -0.309927
    27 H11A     4.7156   8.7577  10.5666   H         1 RES1    0.105204
    28 H11B     5.2947  10.0098  11.3126   H         1 RES1    0.105204
    29 H11C     4.9534  10.0964   9.7860   H         1 RES1    0.105204
    30 C12      0.7336  10.9765   6.6339   C.3       1 RES1    0.132802
    31 H12      0.7166  11.8992   6.9616   H         1 RES1    0.050713
    32 C13      1.7796  10.8965   5.5316   C.3       1 RES1   -0.309927
    33 H13A     2.6371  11.1424   5.8858   H         1 RES1    0.105204
    34 H13B     1.5436  11.4974   4.8202   H         1 RES1    0.105204
    35 H13C     1.8204   9.9994   5.1917   H         1 RES1    0.105204
    36 C14     -0.6521  10.6610   6.0680   C.3       1 RES1   -0.309927
    37 H14A    -0.6215   9.8262   5.5947   H         1 RES1    0.105204
    38 H14B    -0.9187  11.3606   5.4675   H         1 RES1    0.105204
    39 H14C    -1.2838  10.5969   6.7876   H         1 RES1    0.105204
    40 C15     -1.7473  12.9885  12.8566   C.2       1 RES1    0.035607
    41 H15     -0.9934  12.9885  13.4001   H         1 RES1    0.190879
    42 C16     -3.8054  12.9885  12.2571   C.2       1 RES1    0.007035
    43 H16     -4.7343  12.9885  12.2500   H         1 RES1    0.207867
    44 C17     -3.0209  12.9885  13.3177   C.2       1 RES1   -0.354503
    45 H17     -3.2892  12.9885  14.2072   H         1 RES1    0.222991
    46 N1       2.3169  14.0593   8.8498   N.pl3     1 RES1    0.009843
    47 C2       3.5057  13.6471   8.2837   C.2       1 RES1   -0.282466
    48 H2       4.1824  14.1973   7.9621   H         1 RES1    0.285746
    49 C3       1.8866  15.4411   8.8669   C.2       1 RES1   -0.083474
    50 C4       2.3255  16.2689   9.8928   C.2       1 RES1    0.190754
    51 C5       1.9020  17.5984   9.8328   C.2       1 RES1    0.049220
    52 H5       2.1583  18.1839  10.5086   H         1 RES1    0.181977
    53 C6       1.1321  18.0585   8.8221   C.2       1 RES1   -0.287395
    54 H6       0.8609  18.9476   8.8160   H         1 RES1    0.220119
    55 C7       0.7482  17.2234   7.8084   C.2       1 RES1    0.049220
    56 H7       0.2309  17.5605   7.1133   H         1 RES1    0.181977
    57 C8       1.1111  15.8924   7.7972   C.2       1 RES1    0.190754
    58 C9       3.2712  15.8091  10.9707   C.3       1 RES1    0.132802
    59 H9       3.2621  14.8294  10.9788   H         1 RES1    0.050713
    60 C10      2.8817  16.2876  12.3528   C.3       1 RES1   -0.309927
    61 H10A     2.0004  15.9741  12.5635   H         1 RES1    0.105204
    62 H10B     3.5066  15.9464  12.9971   H         1 RES1    0.105204
    63 H10C     2.8936  17.2470  12.3742   H         1 RES1    0.105204
    64 C11      4.6910  16.2616  10.6266   C.3       1 RES1   -0.309927
    65 H11A     4.7156  17.2193  10.5666   H         1 RES1    0.105204
    66 H11B     5.2947  15.9672  11.3126   H         1 RES1    0.105204
    67 H11C     4.9534  15.8806   9.7860   H         1 RES1    0.105204
    68 C12      0.7336  15.0005   6.6339   C.3       1 RES1    0.132802
    69 H12      0.7166  14.0778   6.9616   H         1 RES1    0.050713
    70 C13      1.7796  15.0805   5.5316   C.3       1 RES1   -0.309927
    71 H13A     2.6371  14.8346   5.8858   H         1 RES1    0.105204
    72 H13B     1.5436  14.4796   4.8202   H         1 RES1    0.105204
    73 H13C     1.8204  15.9776   5.1917   H         1 RES1    0.105204
    74 C14     -0.6521  15.3160   6.0680   C.3       1 RES1   -0.309927
    75 H14A    -0.6215  16.1508   5.5947   H         1 RES1    0.105204
    76 H14B    -0.9187  14.6164   5.4675   H         1 RES1    0.105204
    77 H14C    -1.2838  15.3801   6.7876   H         1 RES1    0.105204
@<TRIPOS>BOND
     1     1     2    1
     2     1     3    1
     3     1     5    1
     4     1     8    1
     5     4     8    1
     6     4     9    1
     7     4    11    1
     8     5     6    1
     9     5    40    2
    10     6     7    1
    11     6    42    1
    12     8    46    1
    13     9    10    1
    14     9    47    2
    15    11    12    2
    16    11    19    1
    17    12    13    1
    18    12    20    1
    19    13    14    1
    20    13    15    2
    21    15    16    1
    22    15    17    1
    23    17    18    1
    24    17    19    2
    25    19    30    1
    26    20    21    1
    27    20    22    1
    28    20    26    1
    29    22    23    1
    30    22    24    1
    31    22    25    1
    32    26    27    1
    33    26    28    1
    34    26    29    1
    35    30    31    1
    36    30    32    1
    37    30    36    1
    38    32    33    1
    39    32    34    1
    40    32    35    1
    41    36    37    1
    42    36    38    1
    43    36    39    1
    44    40    41    1
    45    40    44    1
    46    42    43    1
    47    42    44    2
    48    44    45    1
    49    46    47    1
    50    46    49    1
    51    47    48    1
    52    49    50    2
    53    49    57    1
    54    50    51    1
    55    50    58    1
    56    51    52    1
    57    51    53    2
    58    53    54    1
    59    53    55    1
    60    55    56    1
    61    55    57    2
    62    57    68    1
    63    58    59    1
    64    58    60    1
    65    58    64    1
    66    60    61    1
    67    60    62    1
    68    60    63    1
    69    64    65    1
    70    64    66    1
    71    64    67    1
    72    68    69    1
    73    68    70    1
    74    68    74    1
    75    70    71    1
    76    70    72    1
    77    70    73    1
    78    74    75    1
    79    74    76    1
    80    74    77    1
@<TRIPOS>SUBSTRUCTURE
